# CIF file generated by supercell program. See https://orex.github.io/supercell
# E_e = 0.0000000000 eV
data_VESTA_phase_1
_chemical_name_common 'In2.666 Te3.999'
_cell_length_a 12.326
_cell_length_b 12.326
_cell_length_c 12.326
_cell_angle_alpha 90
_cell_angle_beta 90
_cell_angle_gamma 90
_space_group_IT_number 1
_space_group_name_H-M_alt 'P 1'
_space_group_name_Hall 'P 1'
loop_
    _space_group_symop_operation_xyz
    x,y,z
loop_
    _atom_site_label
    _atom_site_type_symbol
    _atom_site_fract_x
    _atom_site_fract_y
    _atom_site_fract_z
    _atom_site_occupancy
    In1     In   0.25000   0.25000   0.00000   1.000
    In1     In   0.25000   0.00000   0.75000   1.000
    In1     In   0.25000   0.25000   0.50000   1.000
    In1     In   0.00000   0.50000   0.00000   1.000
    In1     In   0.00000   0.75000   0.25000   1.000
    In1     In   0.25000   0.75000   0.00000   1.000
    In1     In   0.00000   0.50000   0.50000   1.000
    In1     In   0.00000   0.75000   0.75000   1.000
    In1     In   0.25000   0.50000   0.75000   1.000
    In1     In   0.50000   0.25000   0.25000   1.000
    In1     In   0.75000   0.00000   0.25000   1.000
    In1     In   0.75000   0.25000   0.00000   1.000
    In1     In   0.50000   0.00000   0.50000   1.000
    In1     In   0.75000   0.00000   0.75000   1.000
    In1     In   0.75000   0.25000   0.50000   1.000
    In1     In   0.50000   0.50000   0.00000   1.000
    In1     In   0.75000   0.75000   0.00000   1.000
    In1     In   0.50000   0.50000   0.50000   1.000
    In1     In   0.50000   0.75000   0.75000   1.000
    In1     In   0.75000   0.50000   0.75000   1.000
    In1     In   0.75000   0.75000   0.50000   1.000
    Te1     Te   0.12500   0.12500   0.12500   1.000
    Te1     Te   0.37500   0.37500   0.12500   1.000
    Te1     Te   0.37500   0.12500   0.37500   1.000
    Te1     Te   0.12500   0.37500   0.37500   1.000
    Te1     Te   0.12500   0.12500   0.62500   1.000
    Te1     Te   0.37500   0.37500   0.62500   1.000
    Te1     Te   0.37500   0.12500   0.87500   1.000
    Te1     Te   0.12500   0.37500   0.87500   1.000
    Te1     Te   0.12500   0.62500   0.12500   1.000
    Te1     Te   0.37500   0.87500   0.12500   1.000
    Te1     Te   0.37500   0.62500   0.37500   1.000
    Te1     Te   0.12500   0.87500   0.37500   1.000
    Te1     Te   0.12500   0.62500   0.62500   1.000
    Te1     Te   0.37500   0.87500   0.62500   1.000
    Te1     Te   0.37500   0.62500   0.87500   1.000
    Te1     Te   0.12500   0.87500   0.87500   1.000
    Te1     Te   0.62500   0.12500   0.12500   1.000
    Te1     Te   0.87500   0.37500   0.12500   1.000
    Te1     Te   0.87500   0.12500   0.37500   1.000
    Te1     Te   0.62500   0.37500   0.37500   1.000
    Te1     Te   0.62500   0.12500   0.62500   1.000
    Te1     Te   0.87500   0.37500   0.62500   1.000
    Te1     Te   0.87500   0.12500   0.87500   1.000
    Te1     Te   0.62500   0.37500   0.87500   1.000
    Te1     Te   0.62500   0.62500   0.12500   1.000
    Te1     Te   0.87500   0.87500   0.12500   1.000
    Te1     Te   0.87500   0.62500   0.37500   1.000
    Te1     Te   0.62500   0.87500   0.37500   1.000
    Te1     Te   0.62500   0.62500   0.62500   1.000
    Te1     Te   0.87500   0.87500   0.62500   1.000
    Te1     Te   0.87500   0.62500   0.87500   1.000
    Te1     Te   0.62500   0.87500   0.87500   1.000
